     1014.80       298.6949       18.63960
    124.0000       299.6500       18.58188    0.00    0.00
    810.0000       301.6888       15.30626    0.00    0.00
   1541.0000       304.5541       11.98349    0.00    0.00
   3178.0000       312.2750        6.76311    0.00    0.00
   4437.0000       317.8749        4.15019    0.00    0.00
   5887.0000       324.8602        2.42535    0.00    0.00
   7596.0000       332.5846        1.11535    0.00    0.00
   9690.0000       339.6121        0.32924    0.00    0.00
  10949.0000       342.8986        0.13712    0.00    0.00
  12418.0000       346.4510        0.04282    0.00    0.00
  14203.0000       353.9290        0.01063    0.00    0.00
  16590.0000       383.2672        0.00532    0.00    0.00
  20726.0000       494.1519        0.04066    0.00    0.00
  40000.0000      1010.8810        0.00000    0.00    0.00
