 954.90     302.27229    20.36090
  10.0000     302.27229      20.36090      0.00000   0.00000
  20.0000     302.27871      20.24362      0.00000   0.00000
  30.0000     302.28599      20.14883      0.00000   0.00000
  40.0000     302.29487      20.07795      0.00000   0.00000
  50.0000     302.30587      20.00655      0.00000   0.00000
  60.0000     302.31924      19.93738      0.00000   0.00000
  70.0000     302.33507      19.87122      0.00000   0.00000
  80.0000     302.35338      19.80829      0.00000   0.00000
  90.0000     302.37413      19.73923      0.00000   0.00000
 100.0000     302.39730      19.67619      0.00000   0.00000
 110.0000     302.42280      19.61654      0.00000   0.00000
 120.0000     302.45045      19.55761      0.00000   0.00000
 130.0000     302.48004      19.50158      0.00000   0.00000
 140.0000     302.51137      19.44436      0.00000   0.00000
 150.0000     302.54425      19.38832      0.00000   0.00000
 160.0000     302.57859      19.33407      0.00000   0.00000
 170.0000     302.61438      19.28240      0.00000   0.00000
 180.0000     302.65167      19.23119      0.00000   0.00000
 190.0000     302.69054      19.18041      0.00000   0.00000
 200.0000     302.73106      19.13206      0.00000   0.00000
 210.0000     302.77322      19.08058      0.00000   0.00000
 220.0000     302.81694      19.02817      0.00000   0.00000
 230.0000     302.86210      18.97655      0.00000   0.00000
 240.0000     302.90850      18.93002      0.00000   0.00000
 250.0000     302.95587      18.88360      0.00000   0.00000
 260.0000     303.00391      18.83739      0.00000   0.00000
 270.0000     303.05225      18.79293      0.00000   0.00000
 280.0000     303.10055      18.74893      0.00000   0.00000
 290.0000     303.14857      18.70571      0.00000   0.00000
 300.0000     303.19621      18.66309      0.00000   0.00000
 310.0000     303.24350      18.61506      0.00000   0.00000
 320.0000     303.29062      18.57060      0.00000   0.00000
 330.0000     303.33785      18.53163      0.00000   0.00000
 340.0000     303.38551      18.49546      0.00000   0.00000
 350.0000     303.43389      18.46000      0.00000   0.00000
 360.0000     303.48322      18.42684      0.00000   0.00000
 370.0000     303.53357      18.39725      0.00000   0.00000
 380.0000     303.58488      18.37046      0.00000   0.00000
 390.0000     303.63696      18.33935      0.00000   0.00000
 400.0000     303.68954      18.30821      0.00000   0.00000
 410.0000     303.74232      18.27835      0.00000   0.00000
 420.0000     303.79503      18.25017      0.00000   0.00000
 430.0000     303.84748      18.22194      0.00000   0.00000
 440.0000     303.89958      18.19425      0.00000   0.00000
 450.0000     303.95135      18.16678      0.00000   0.00000
 460.0000     304.00286      18.14592      0.00000   0.00000
 470.0000     304.05427      18.12232      0.00000   0.00000
 480.0000     304.10574      18.09459      0.00000   0.00000
 490.0000     304.15746      18.06563      0.00000   0.00000
 500.0000     304.20961      18.03669      0.00000   0.00000
 510.0000     304.26232      18.00768      0.00000   0.00000
 520.0000     304.31566      17.97843      0.00000   0.00000
 530.0000     304.36964      17.94840      0.00000   0.00000
 540.0000     304.42427      17.91748      0.00000   0.00000
 550.0000     304.47955      17.88718      0.00000   0.00000
 560.0000     304.53550      17.85721      0.00000   0.00000
 570.0000     304.59218      17.82656      0.00000   0.00000
 580.0000     304.64967      17.79611      0.00000   0.00000
 590.0000     304.70799      17.76486      0.00000   0.00000
 600.0000     304.76708      17.73218      0.00000   0.00000
 610.0000     304.82676      17.69956      0.00000   0.00000
 620.0000     304.88663      17.66585      0.00000   0.00000
 630.0000     304.94607      17.63162      0.00000   0.00000
 640.0000     305.00431      17.59789      0.00000   0.00000
 650.0000     305.06065      17.56689      0.00000   0.00000
 660.0000     305.11483      17.53996      0.00000   0.00000
 670.0000     305.16725      17.51299      0.00000   0.00000
 680.0000     305.21901      17.48713      0.00000   0.00000
 690.0000     305.27151      17.46252      0.00000   0.00000
 700.0000     305.32592      17.43693      0.00000   0.00000
 710.0000     305.38268      17.41113      0.00000   0.00000
 720.0000     305.44144      17.38538      0.00000   0.00000
 730.0000     305.50133      17.35954      0.00000   0.00000
 740.0000     305.56145      17.33420      0.00000   0.00000
 750.0000     305.62121      17.31047      0.00000   0.00000
 760.0000     305.68042      17.28655      0.00000   0.00000
 770.0000     305.73915      17.26430      0.00000   0.00000
 780.0000     305.79757      17.24321      0.00000   0.00000
 790.0000     305.85575      17.22164      0.00000   0.00000
 800.0000     305.91364      17.19782      0.00000   0.00000
 810.0000     305.97117      17.16963      0.00000   0.00000
 820.0000     306.02831      17.14134      0.00000   0.00000
 830.0000     306.08513      17.11285      0.00000   0.00000
 840.0000     306.14182      17.08401      0.00000   0.00000
 850.0000     306.19865      17.05629      0.00000   0.00000
 860.0000     306.25583      17.02839      0.00000   0.00000
 870.0000     306.31356      17.00027      0.00000   0.00000
 880.0000     306.37192      16.97156      0.00000   0.00000
 890.0000     306.43088      16.94359      0.00000   0.00000
 900.0000     306.49036      16.91683      0.00000   0.00000
 910.0000     306.55018      16.89051      0.00000   0.00000
 920.0000     306.61012      16.86404      0.00000   0.00000
 930.0000     306.66993      16.83781      0.00000   0.00000
 940.0000     306.72944      16.81238      0.00000   0.00000
 950.0000     306.78853      16.78665      0.00000   0.00000
 960.0000     306.84720      16.76025      0.00000   0.00000
 970.0000     306.90551      16.73334      0.00000   0.00000
 980.0000     306.96352      16.70519      0.00000   0.00000
 990.0000     307.02122      16.67667      0.00000   0.00000
1000.0000     307.07852      16.64771      0.00000   0.00000
1010.0000     307.13528      16.61830      0.00000   0.00000
1020.0000     307.19139      16.58893      0.00000   0.00000
1030.0000     307.24688      16.56076      0.00000   0.00000
1040.0000     307.30185      16.53241      0.00000   0.00000
1050.0000     307.35654      16.50311      0.00000   0.00000
1060.0000     307.41123      16.47298      0.00000   0.00000
1070.0000     307.46616      16.44302      0.00000   0.00000
1080.0000     307.52156      16.41243      0.00000   0.00000
1090.0000     307.57758      16.38133      0.00000   0.00000
1100.0000     307.63437      16.35046      0.00000   0.00000
1110.0000     307.69206      16.32105      0.00000   0.00000
1120.0000     307.75080      16.29280      0.00000   0.00000
1130.0000     307.81070      16.26526      0.00000   0.00000
1140.0000     307.87176      16.23809      0.00000   0.00000
1150.0000     307.93384      16.20959      0.00000   0.00000
1160.0000     307.99669      16.18167      0.00000   0.00000
1170.0000     308.05995      16.15436      0.00000   0.00000
1180.0000     308.12331      16.12643      0.00000   0.00000
1190.0000     308.18657      16.09733      0.00000   0.00000
1200.0000     308.24969      16.06838      0.00000   0.00000
1210.0000     308.31277      16.03930      0.00000   0.00000
1220.0000     308.37590      16.00986      0.00000   0.00000
1230.0000     308.43907      15.98050      0.00000   0.00000
1240.0000     308.50210      15.95038      0.00000   0.00000
1250.0000     308.56470      15.91987      0.00000   0.00000
1260.0000     308.62652      15.88724      0.00000   0.00000
1270.0000     308.68729      15.85145      0.00000   0.00000
1280.0000     308.74690      15.81517      0.00000   0.00000
1290.0000     308.80551      15.77894      0.00000   0.00000
1300.0000     308.86352      15.74469      0.00000   0.00000
1310.0000     308.92144      15.70969      0.00000   0.00000
1320.0000     308.97978      15.67415      0.00000   0.00000
1330.0000     309.03880      15.63908      0.00000   0.00000
1340.0000     309.09846      15.60497      0.00000   0.00000
1350.0000     309.15843      15.57044      0.00000   0.00000
1360.0000     309.21813      15.53662      0.00000   0.00000
1370.0000     309.27685      15.50259      0.00000   0.00000
1380.0000     309.33382      15.46878      0.00000   0.00000
1390.0000     309.38834      15.43582      0.00000   0.00000
1400.0000     309.43996      15.40325      0.00000   0.00000
1410.0000     309.48865      15.37231      0.00000   0.00000
1420.0000     309.53488      15.34409      0.00000   0.00000
1430.0000     309.57956      15.31572      0.00000   0.00000
1440.0000     309.62387      15.28735      0.00000   0.00000
1450.0000     309.66901      15.25883      0.00000   0.00000
1460.0000     309.71597      15.23137      0.00000   0.00000
1470.0000     309.76539      15.20492      0.00000   0.00000
1480.0000     309.81752      15.17950      0.00000   0.00000
1490.0000     309.87227      15.15507      0.00000   0.00000
1500.0000     309.92938      15.13116      0.00000   0.00000
1510.0000     309.98848      15.10690      0.00000   0.00000
1520.0000     310.04914      15.08232      0.00000   0.00000
1530.0000     310.11086      15.05743      0.00000   0.00000
1540.0000     310.17316      15.03254      0.00000   0.00000
1550.0000     310.23558      15.00791      0.00000   0.00000
1560.0000     310.29784      14.98294      0.00000   0.00000
1570.0000     310.35983      14.95664      0.00000   0.00000
1580.0000     310.42159      14.93093      0.00000   0.00000
1590.0000     310.48323      14.90512      0.00000   0.00000
1600.0000     310.54484      14.87926      0.00000   0.00000
1610.0000     310.60637      14.85288      0.00000   0.00000
1620.0000     310.66774      14.82726      0.00000   0.00000
1630.0000     310.72880      14.80011      0.00000   0.00000
1640.0000     310.78946      14.77272      0.00000   0.00000
1650.0000     310.84972      14.74692      0.00000   0.00000
1660.0000     310.90966      14.72249      0.00000   0.00000
1670.0000     310.96940      14.69913      0.00000   0.00000
1680.0000     311.02904      14.67563      0.00000   0.00000
1690.0000     311.08858      14.65103      0.00000   0.00000
1700.0000     311.14795      14.62758      0.00000   0.00000
1710.0000     311.20709      14.60523      0.00000   0.00000
1720.0000     311.26605      14.58614      0.00000   0.00000
1730.0000     311.32493      14.56767      0.00000   0.00000
1740.0000     311.38386      14.54968      0.00000   0.00000
1750.0000     311.44280      14.53158      0.00000   0.00000
1760.0000     311.50152      14.51362      0.00000   0.00000
1770.0000     311.55968      14.49496      0.00000   0.00000
1780.0000     311.61708      14.47733      0.00000   0.00000
1790.0000     311.67377      14.45917      0.00000   0.00000
1800.0000     311.73012      14.44136      0.00000   0.00000
1810.0000     311.78662      14.42272      0.00000   0.00000
1820.0000     311.84362      14.40564      0.00000   0.00000
1830.0000     311.90127      14.38846      0.00000   0.00000
1840.0000     311.95950      14.37276      0.00000   0.00000
1850.0000     312.01826      14.35922      0.00000   0.00000
1860.0000     312.07766      14.34611      0.00000   0.00000
1870.0000     312.13805      14.33158      0.00000   0.00000
1880.0000     312.19990      14.31745      0.00000   0.00000
1890.0000     312.26364      14.30536      0.00000   0.00000
1900.0000     312.32942      14.29271      0.00000   0.00000
1910.0000     312.39705      14.27965      0.00000   0.00000
1920.0000     312.46601      14.26552      0.00000   0.00000
1930.0000     312.53568      14.25244      0.00000   0.00000
1940.0000     312.60556      14.23974      0.00000   0.00000
1950.0000     312.67557      14.22527      0.00000   0.00000
1960.0000     312.74600      14.21115      0.00000   0.00000
1970.0000     312.81740      14.19576      0.00000   0.00000
1980.0000     312.89018      14.18457      0.00000   0.00000
1990.0000     312.96436      14.17186      0.00000   0.00000
2000.0000     313.03937      14.15870      0.00000   0.00000
2010.0000     313.11413      14.14442      0.00000   0.00000
2020.0000     313.18739      14.13122      0.00000   0.00000
2030.0000     313.25798      14.11922      0.00000   0.00000
2040.0000     313.32526      14.10363      0.00000   0.00000
2050.0000     313.38923      14.08848      0.00000   0.00000
2060.0000     313.45055      14.07265      0.00000   0.00000
2070.0000     313.51035      14.05669      0.00000   0.00000
2080.0000     313.56993      14.03906      0.00000   0.00000
2090.0000     313.63062      14.02126      0.00000   0.00000
2100.0000     313.69376      14.00339      0.00000   0.00000
2110.0000     313.76071      13.98546      0.00000   0.00000
2120.0000     313.83270      13.96749      0.00000   0.00000
2130.0000     313.91037      13.94631      0.00000   0.00000
2140.0000     313.99316      13.92457      0.00000   0.00000
2150.0000     314.07908      13.90021      0.00000   0.00000
2160.0000     314.16521      13.87622      0.00000   0.00000
2170.0000     314.24864      13.85021      0.00000   0.00000
2180.0000     314.32759      13.82135      0.00000   0.00000
2190.0000     314.40181      13.79315      0.00000   0.00000
2200.0000     314.47237      13.76597      0.00000   0.00000
2210.0000     314.54091      13.73836      0.00000   0.00000
2220.0000     314.60898      13.71047      0.00000   0.00000
2230.0000     314.67759      13.67888      0.00000   0.00000
2240.0000     314.74716      13.64626      0.00000   0.00000
2250.0000     314.81752      13.61419      0.00000   0.00000
2260.0000     314.88815      13.58097      0.00000   0.00000
2270.0000     314.95825      13.54424      0.00000   0.00000
2280.0000     315.02689      13.50728      0.00000   0.00000
2290.0000     315.09310      13.47210      0.00000   0.00000
2300.0000     315.15607      13.43847      0.00000   0.00000
2310.0000     315.21530      13.40433      0.00000   0.00000
2320.0000     315.27091      13.36932      0.00000   0.00000
2330.0000     315.32363      13.32991      0.00000   0.00000
2340.0000     315.37465      13.29205      0.00000   0.00000
2350.0000     315.42515      13.25209      0.00000   0.00000
2360.0000     315.47586      13.21331      0.00000   0.00000
2370.0000     315.52688      13.17642      0.00000   0.00000
2380.0000     315.57778      13.14316      0.00000   0.00000
2390.0000     315.62805      13.10927      0.00000   0.00000
2400.0000     315.67745      13.07455      0.00000   0.00000
2410.0000     315.72624      13.03491      0.00000   0.00000
2420.0000     315.77494      12.99773      0.00000   0.00000
2430.0000     315.82392      12.96091      0.00000   0.00000
2440.0000     315.87302      12.92205      0.00000   0.00000
2450.0000     315.92122      12.87846      0.00000   0.00000
2460.0000     315.96661      12.84443      0.00000   0.00000
2470.0000     316.00659      12.80883      0.00000   0.00000
2480.0000     316.03821      12.76200      0.00000   0.00000
2490.0000     316.05865      12.70271      0.00000   0.00000
2500.0000     316.06587      12.68227      0.00000   0.00000
3000.0000     319.03937      11.15870      0.00000   0.00000
